<?xml version="1.0" encoding="UTF-8"?>

<!-- generated on 2025-12-04 11:26:39.814415 by osmWebWizard.py v1_24_0+0000-b72eb3fabc8
<configuration>
    <net-file value="C:\Users\EMPC\AppData\Roaming\Microsoft\Windows\Start Menu\Programs\SUMO\2025-12-04-11-26-28\osm.net.xml.gz"/>
    <output-trip-file value="C:\Users\EMPC\AppData\Roaming\Microsoft\Windows\Start Menu\Programs\SUMO\2025-12-04-11-26-28\osm.passenger.trips.xml"/>
    <route-file value="C:\Users\EMPC\AppData\Roaming\Microsoft\Windows\Start Menu\Programs\SUMO\2025-12-04-11-26-28\osm.passenger.rou.xml"/>
    <prefix value="veh"/>
    <trip-attributes value="departLane=&quot;best&quot;"/>
    <fringe-start-attributes value="departSpeed=&quot;max&quot;"/>
    <vehicle-class value="passenger"/>
    <lanes value="True"/>
    <fringe-factor value="4"/>
    <allow-fringe.min-length value="1000.0"/>
    <edge-permission value="passenger"/>
    <via-edge-types value="highway.motorway,highway.motorway_link,highway.trunk_link,highway.primary_link,highway.secondary_link,highway.tertiary_link"/>
    <min-distance value="300.0"/>
    <min-distance.fringe value="10.0"/>
    <remove-loops value="True"/>
    <insertion-density value="4.0"/>
</configuration>
-->

<routes xmlns:xsi="http://www.w3.org/2001/XMLSchema-instance" xsi:noNamespaceSchemaLocation="http://sumo.dlr.de/xsd/routes_file.xsd">
    <vType id="veh_passenger" vClass="passenger"/>
    <trip id="veh0" depart="0.00" from="-1427117336#3" to="-326116285" departLane="best" type="veh_passenger" departSpeed="max"/>
    <trip id="veh1" depart="381.83" from="-840229275#3" to="-1155764611#0" departLane="best" type="veh_passenger" departSpeed="max"/>
    <trip id="veh2" depart="763.66" from="-35557143" to="-1423403177" departLane="best" type="veh_passenger" departSpeed="max"/>
    <trip id="veh3" depart="1145.49" from="-1190781962#0" to="-1423271275#0" departLane="best" type="veh_passenger"/>
    <trip id="veh4" depart="1527.32" from="326116286#0" to="1424634881#1" departLane="best" type="veh_passenger" departSpeed="max"/>
    <trip id="veh5" depart="1909.15" from="326116286#0" to="1424634881#1" departLane="best" type="veh_passenger" departSpeed="max"/>
    <trip id="veh6" depart="2290.98" from="171423001#2" to="-1176516118#0" departLane="best" type="veh_passenger"/>
    <trip id="veh7" depart="2672.81" from="1423271275#0" to="1427117336#3" departLane="best" type="veh_passenger" departSpeed="max"/>
    <trip id="veh8" depart="3054.64" from="-1427113461#1" to="-1155764611#0" departLane="best" type="veh_passenger" departSpeed="max"/>
    <trip id="veh9" depart="3436.47" from="1423403176#2" to="4588219#3" departLane="best" type="veh_passenger"/>
</routes>
